11
CC([*])C isopropyl,ch(ch3)2,ipr
C   1.22330   -0.18630  -0.25170 
C   -0.01330  0.63390   0.04160  
R   -0.35880  1.26100   -1.15660 
C   -1.17760  -0.29640  0.37270  
H   1.75780   -0.50940  0.65280  
H   0.85950   -1.08000  -0.83020 
H   1.92730   0.36040   -0.92510 
H   0.12240   1.36750   0.84050  
H   -1.09050  -0.72390  1.38300  
H   -1.15490  -1.14150  -0.36260 
H   -2.09530  0.31490   0.23570  
