21
CC1=CC(C)=CC(C)=C1[*] mesityl,mes
C   -1.37990  2.46080   0.11870  
C   -0.67120  1.17530   0.05210  
C   0.70790   1.17240   0.06530  
C   1.37520   -0.03140  0.00300  
C   2.86340   0.01360   0.02000  
C   0.66940   -1.19090  -0.07000 
C   -0.69000  -1.21850  -0.08480 
C   -1.42150  -2.49540  -0.16480 
C   -1.37110  -0.00740  -0.02220 
R   -2.72680  0.00570   -0.03460 
H   -1.87830  2.72620   -0.82720 
H   -0.69870  3.28850   0.40650  
H   -2.16700  2.37300   0.90120  
H   1.24900   2.11400   0.12440  
H   3.31060   -0.98360  0.11400  
H   3.14290   0.56970   0.95070  
H   3.24880   0.61350   -0.82100 
H   1.22090   -2.11820  -0.11760 
H   -1.27170  -3.09720  0.74620  
H   -1.01700  -3.09490  -1.02310 
H   -2.49470  -2.27520  -0.33690 
